#!/sbin/sh
SKIPUNZIP=1

ui_print() { echo "$1"; }

# Extract all module files
unzip -o "$ZIPFILE" 'module.prop' -d "$MODPATH"
unzip -o "$ZIPFILE" 'service.sh' -d "$MODPATH"
unzip -o "$ZIPFILE" 'uninstall.sh' -d "$MODPATH"

chmod +x "$MODPATH/service.sh"
chmod +x "$MODPATH/uninstall.sh"

# Create swap file if not exists
if [ ! -f /data/swap.img ]; then
    ui_print "- Creating 1GB swap file..."
    dd if=/dev/zero of=/data/swap.img bs=1M count=1024
    chmod 600 /data/swap.img
    mkswap /data/swap.img
    ui_print "- Swap file created!"
else
    ui_print "- Swap file already exists, skipping creation"
fi

ui_print "- Done! Reboot to activate."